.papers/SPECTRAL_CLUSTERING_2018/netw_data/case39_0.m
function mpc = case39_0
%CASE39 Power flow data for 39 bus New England system.
%   Please see CASEFORMAT for details on the case file format.
%
%   Data taken from [1] with the following modifications/additions:
%
%       - renumbered gen buses consecutively (as in [2] and [4])
%       - added Pmin = 0 for all gens
%       - added Qmin, Qmax for gens at 31 & 39 (copied from gen at 35)
%       - added Vg based on V in bus data (missing for bus 39)
%       - added Vg, Pg, Pd, Qd at bus 39 from [2] (same in [4])
%       - added Pmax at bus 39: Pmax = Pg + 100
%       - added line flow limits and area data from [4]
%       - added voltage limits, Vmax = 1.06, Vmin = 0.94
%       - added identical quadratic generator costs
%       - increased Pmax for gen at bus 34 from 308 to 508
%         (assumed typo in [1], makes initial solved case feasible)
%       - re-solved power flow
% 
%   Notes:
%       - Bus 39, its generator and 2 connecting lines were added
%         (by authors of [1]) to represent the interconnection with
%         the rest of the eastern interconnect, and did not include
%         Vg, Pg, Qg, Pd, Qd, Pmin, Pmax, Qmin or Qmax.
%       - As the swing bus, bus 31 did not include and Q limits.
%       - The voltages, etc in [1] appear to be quite close to the
%         power flow solution of the case before adding bus 39 with
%         it's generator and connecting branches, though the solution
%         is not exact.
%       - Explicit voltage setpoints for gen buses are not given, so
%         they are taken from the bus data, however this results in two
%         binding Q limits at buses 34 & 37, so the corresponding
%         voltages have probably deviated from their original setpoints.
%       - The generator locations and types are as follows:
%           1   30      hydro
%           2   31      nuke01
%           3   32      nuke02
%           4   33      fossil02
%           5   34      fossil01
%           6   35      nuke03
%           7   36      fossil04
%           8   37      nuke04
%           9   38      nuke05
%           10  39      interconnection to rest of US/Canada
%
%   This is a solved power flow case, but it includes the following
%   violations:
%       - Pmax violated at bus 31: Pg = 677.87, Pmax = 646
%       - Qmin violated at bus 37: Qg = -1.37,  Qmin = 0
%
%   References:
%   [1] G. W. Bills, et.al., "On-Line Stability Analysis Study"
%       RP90-1 Report for the Edison Electric Institute, October 12, 1970,
%       pp. 1-20 - 1-35.
%       prepared by E. M. Gulachenski - New England Electric System
%                   J. M. Undrill     - General Electric Co.
%       "generally representative of the New England 345 KV system, but is
%        not an exact or complete model of any past, present or projected
%        configuration of the actual New England 345 KV system.
%   [2] M. A. Pai, Energy Function Analysis for Power System Stability,
%       Kluwer Academic Publishers, Boston, 1989.
%       (references [3] as source of data)
%   [3] Athay, T.; Podmore, R.; Virmani, S., "A Practical Method for the
%       Direct Analysis of Transient Stability," IEEE Transactions on Power
%       Apparatus and Systems , vol.PAS-98, no.2, pp.573-584, March 1979.
%       URL: http://ieeexplore.ieee.org/stamp/stamp.jsp?arnumber=4113518&isnumber=4113486
%       (references [1] as source of data)
%   [4] Data included with TC Calculator at http://www.pserc.cornell.edu/tcc/
%       for 39-bus system.

%   MATPOWER

%% MATPOWER Case Format : Version 2
mpc.version = '2';

%%-----  Power Flow Data  -----%%
%% system MVA base
mpc.baseMVA = 100;

%% bus data
%	 bus_i	   type	    Pd	     Qd         Gs      Bs      area      Vm      Va     baseKV	    zone	   Vmax	    Vmin
mpc.bus = [
    1.00     1.00     0.00     0.00     0.00     0.00     2.00     1.04   -13.54   345.00     1.00     1.06     0.94 
    2.00     1.00     0.00     0.00     0.00     0.00     2.00     1.05    -9.79   345.00     1.00     1.06     0.94 
    3.00     1.00   322.00     2.40     0.00     0.00     2.00     1.03   -12.28   345.00     1.00     1.06     0.94 
    4.00     1.00   500.00   184.00     0.00     0.00     1.00     1.00   -12.63   345.00     1.00     1.06     0.94 
    5.00     1.00     0.00     0.00     0.00     0.00     1.00     1.01   -11.19   345.00     1.00     1.06     0.94 
    6.00     1.00     0.00     0.00     0.00     0.00     1.00     1.01   -10.41   345.00     1.00     1.06     0.94 
    7.00     1.00   233.80    84.00     0.00     0.00     1.00     1.00   -12.76   345.00     1.00     1.06     0.94 
    8.00     1.00   522.00   176.00     0.00     0.00     1.00     1.00   -13.34   345.00     1.00     1.06     0.94 
    9.00     1.00     0.00     0.00     0.00     0.00     1.00     1.04   -14.18   345.00     1.00     1.06     0.94 
   10.00     1.00     0.00     0.00     0.00     0.00     1.00     1.02    -8.17   345.00     1.00     1.06     0.94 
   11.00     1.00     0.00     0.00     0.00     0.00     1.00     1.01    -8.94   345.00     1.00     1.06     0.94 
   12.00     1.00     7.50    88.00     0.00     0.00     1.00     1.00    -9.00   345.00     1.00     1.06     0.94 
   13.00     1.00     0.00     0.00     0.00     0.00     1.00     1.01    -8.93   345.00     1.00     1.06     0.94 
   14.00     1.00     0.00     0.00     0.00     0.00     1.00     1.01   -10.72   345.00     1.00     1.06     0.94 
   15.00     1.00   320.00   153.00     0.00     0.00     3.00     1.02   -11.35   345.00     1.00     1.06     0.94 
   16.00     1.00   329.00    32.30     0.00     0.00     3.00     1.03   -10.03   345.00     1.00     1.06     0.94 
   17.00     1.00     0.00     0.00     0.00     0.00     2.00     1.03   -11.12   345.00     1.00     1.06     0.94 
   18.00     1.00   158.00    30.00     0.00     0.00     2.00     1.03   -11.99   345.00     1.00     1.06     0.94 
   19.00     1.00     0.00     0.00     0.00     0.00     3.00     1.05    -5.41   345.00     1.00     1.06     0.94 
   20.00     1.00   628.00   103.00     0.00     0.00     3.00     0.99    -6.82   345.00     1.00     1.06     0.94 
   21.00     1.00   274.00   115.00     0.00     0.00     3.00     1.03    -7.63   345.00     1.00     1.06     0.94 
   22.00     1.00     0.00     0.00     0.00     0.00     3.00     1.05    -3.18   345.00     1.00     1.06     0.94 
   23.00     1.00   247.50    84.60     0.00     0.00     3.00     1.05    -3.38   345.00     1.00     1.06     0.94 
   24.00     1.00   308.60   -92.20     0.00     0.00     3.00     1.04    -9.91   345.00     1.00     1.06     0.94 
   25.00     1.00   224.00    47.20     0.00     0.00     2.00     1.06    -8.37   345.00     1.00     1.06     0.94 
   26.00     1.00   139.00    17.00     0.00     0.00     2.00     1.05    -9.44   345.00     1.00     1.06     0.94 
   27.00     1.00   281.00    75.50     0.00     0.00     2.00     1.04   -11.36   345.00     1.00     1.06     0.94 
   28.00     1.00   206.00    27.60     0.00     0.00     3.00     1.05    -5.93   345.00     1.00     1.06     0.94 
   29.00     1.00   283.50    26.90     0.00     0.00     3.00     1.05    -3.17   345.00     1.00     1.06     0.94 
   30.00     2.00     0.00     0.00     0.00     0.00     2.00     1.05    -7.37   345.00     1.00     1.06     0.94 
   31.00     3.00     9.20     4.60     0.00     0.00     1.00     0.98     0.00   345.00     1.00     1.06     0.94 
   32.00     2.00     0.00     0.00     0.00     0.00     1.00     0.98    -0.19   345.00     1.00     1.06     0.94 
   33.00     2.00     0.00     0.00     0.00     0.00     3.00     1.00    -0.19   345.00     1.00     1.06     0.94 
   34.00     2.00     0.00     0.00     0.00     0.00     3.00     1.01    -1.63   345.00     1.00     1.06     0.94 
   35.00     2.00     0.00     0.00     0.00     0.00     3.00     1.05     1.78   345.00     1.00     1.06     0.94 
   36.00     2.00     0.00     0.00     0.00     0.00     3.00     1.06     4.47   345.00     1.00     1.06     0.94 
   37.00     2.00     0.00     0.00     0.00     0.00     2.00     1.03    -1.58   345.00     1.00     1.06     0.94 
   38.00     2.00     0.00     0.00     0.00     0.00     3.00     1.03     3.89   345.00     1.00     1.06     0.94 
   39.00     2.00  1104.00   250.00     0.00     0.00     1.00     1.03   -14.54   345.00     1.00     1.06     0.94 
];

%% generator data
%	bus	Pg        Qg	  Qmax	Qmin	Vg	mBase	status	Pmax	Pmin	Pc1	Pc2	Qc1min	Qc1max	Qc2min	Qc2max	ramp_agc	ramp_10	ramp_30	ramp_q	apf
mpc.gen = [
	30	250     161.762	400 	 140	1.0475	100	1	1040	0	0	0	0	0	0	0	0	0	0	0	0;
	31	677.88	221.574	300 	-100	0.982	100	1	646	0	0	0	0	0	0	0	0	0	0	0	0;
	32	650     206.965	300 	 150	0.9831	100	1	725	0	0	0	0	0	0	0	0	0	0	0	0;
	33	632     108.293	250 	   0	0.9972	100	1	652	0	0	0	0	0	0	0	0	0	0	0	0;
	34	508     166.688	167 	   0	1.0123	100	1	508	0	0	0	0	0	0	0	0	0	0	0	0;
	35	650     210.661	300 	-100	1.0493	100	1	687	0	0	0	0	0	0	0	0	0	0	0	0;
	36	560     100.165	240 	   0	1.0635	100	1	580	0	0	0	0	0	0	0	0	0	0	0	0;
	37	540    -1.36945	250 	   0	1.0278	100	1	564	0	0	0	0	0	0	0	0	0	0	0	0;
	38	830     21.7327	300 	-150	1.0265	100	1	865	0	0	0	0	0	0	0	0	0	0	0	0;
	39	1000    78.4674	300 	-100	1.03	100	1	1100	0	0	0	0	0	0	0	0	0	0	0	0;
];


%% branch data
%	fbus	tbus	r	x	b	rateA	rateB	rateC	ratio	angle	status	angmin	angmax
mpc.branch = [
   1.0000    2.0000    0.0035    0.0411    0.6987  600.0000  600.0000  600.0000    0.0000    0.0000    1.0000 -360.0000  360.0000 
   1.0000   39.0000    0.0010    0.0250    0.7500 1000.0000 1000.0000 1000.0000    0.0000    0.0000    1.0000 -360.0000  360.0000 
   2.0000    3.0000    0.0013    0.0151    0.2572  500.0000  500.0000  500.0000    0.0000    0.0000    1.0000 -360.0000  360.0000 
   2.0000   25.0000    0.0070    0.0086    0.1460  500.0000  500.0000  500.0000    0.0000    0.0000    1.0000 -360.0000  360.0000 
   2.0000   30.0000    0.0000    0.0181    0.0000  900.0000  900.0000 2500.0000    1.0250    0.0000    1.0000 -360.0000  360.0000 
   3.0000    4.0000    0.0013    0.0213    0.2214  500.0000  500.0000  500.0000    0.0000    0.0000    1.0000 -360.0000  360.0000 
   3.0000   18.0000    0.0011    0.0133    0.2138  500.0000  500.0000  500.0000    0.0000    0.0000    1.0000 -360.0000  360.0000 
   4.0000    5.0000    0.0008    0.0128    0.1342  600.0000  600.0000  600.0000    0.0000    0.0000    1.0000 -360.0000  360.0000 
   4.0000   14.0000    0.0008    0.0129    0.1382  500.0000  500.0000  500.0000    0.0000    0.0000    1.0000 -360.0000  360.0000 
   5.0000    6.0000    0.0002    0.0026    0.0434 1200.0000 1200.0000 1200.0000    0.0000    0.0000    1.0000 -360.0000  360.0000 
   5.0000    8.0000    0.0008    0.0112    0.1476  900.0000  900.0000  900.0000    0.0000    0.0000    1.0000 -360.0000  360.0000 
   6.0000    7.0000    0.0006    0.0092    0.1130  900.0000  900.0000  900.0000    0.0000    0.0000    1.0000 -360.0000  360.0000 
   6.0000   11.0000    0.0007    0.0082    0.1389  480.0000  480.0000  480.0000    0.0000    0.0000    1.0000 -360.0000  360.0000 
   6.0000   31.0000    0.0000    0.0250    0.0000 1800.0000 1800.0000 1800.0000    1.0700    0.0000    1.0000 -360.0000  360.0000 
   7.0000    8.0000    0.0004    0.0046    0.0780  900.0000  900.0000  900.0000    0.0000    0.0000    1.0000 -360.0000  360.0000 
   8.0000    9.0000    0.0023    0.0363    0.3804  900.0000  900.0000  900.0000    0.0000    0.0000    1.0000 -360.0000  360.0000 
   9.0000   39.0000    0.0010    0.0250    1.2000  900.0000  900.0000  900.0000    0.0000    0.0000    1.0000 -360.0000  360.0000 
  10.0000   11.0000    0.0004    0.0043    0.0729  600.0000  600.0000  600.0000    0.0000    0.0000    1.0000 -360.0000  360.0000 
  10.0000   13.0000    0.0004    0.0043    0.0729  600.0000  600.0000  600.0000    0.0000    0.0000    1.0000 -360.0000  360.0000 
  10.0000   32.0000    0.0000    0.0200    0.0000  900.0000  900.0000 2500.0000    1.0700    0.0000    1.0000 -360.0000  360.0000 
  12.0000   11.0000    0.0016    0.0435    0.0000  500.0000  500.0000  500.0000    1.0060    0.0000    1.0000 -360.0000  360.0000 
  12.0000   13.0000    0.0016    0.0435    0.0000  500.0000  500.0000  500.0000    1.0060    0.0000    1.0000 -360.0000  360.0000 
  13.0000   14.0000    0.0009    0.0101    0.1723  600.0000  600.0000  600.0000    0.0000    0.0000    1.0000 -360.0000  360.0000 
  14.0000   15.0000    0.0018    0.0217    0.3660  600.0000  600.0000  600.0000    0.0000    0.0000    1.0000 -360.0000  360.0000 
  15.0000   16.0000    0.0009    0.0094    0.1710  600.0000  600.0000  600.0000    0.0000    0.0000    1.0000 -360.0000  360.0000 
  16.0000   17.0000    0.0007    0.0089    0.1342  600.0000  600.0000  600.0000    0.0000    0.0000    1.0000 -360.0000  360.0000 
  16.0000   19.0000    0.0016    0.0195    0.3040  600.0000  600.0000 2500.0000    0.0000    0.0000    1.0000 -360.0000  360.0000 
  16.0000   21.0000    0.0008    0.0135    0.2548  600.0000  600.0000  600.0000    0.0000    0.0000    1.0000 -360.0000  360.0000 
  16.0000   24.0000    0.0003    0.0059    0.0680  600.0000  600.0000  600.0000    0.0000    0.0000    1.0000 -360.0000  360.0000 
  17.0000   18.0000    0.0007    0.0082    0.1319  600.0000  600.0000  600.0000    0.0000    0.0000    1.0000 -360.0000  360.0000 
  17.0000   27.0000    0.0013    0.0173    0.3216  600.0000  600.0000  600.0000    0.0000    0.0000    1.0000 -360.0000  360.0000 
  19.0000   20.0000    0.0007    0.0138    0.0000  900.0000  900.0000 2500.0000    1.0600    0.0000    1.0000 -360.0000  360.0000 
  19.0000   33.0000    0.0007    0.0142    0.0000  900.0000  900.0000 2500.0000    1.0700    0.0000    1.0000 -360.0000  360.0000 
  20.0000   34.0000    0.0009    0.0180    0.0000  900.0000  900.0000 2500.0000    1.0090    0.0000    1.0000 -360.0000  360.0000 
  21.0000   22.0000    0.0008    0.0140    0.2565  900.0000  900.0000  900.0000    0.0000    0.0000    1.0000 -360.0000  360.0000 
  22.0000   23.0000    0.0006    0.0096    0.1846  600.0000  600.0000  600.0000    0.0000    0.0000    1.0000 -360.0000  360.0000 
  22.0000   35.0000    0.0000    0.0143    0.0000  900.0000  900.0000 2500.0000    1.0250    0.0000    1.0000 -360.0000  360.0000 
  23.0000   24.0000    0.0022    0.0350    0.3610  600.0000  600.0000  600.0000    0.0000    0.0000    1.0000 -360.0000  360.0000 
  23.0000   36.0000    0.0005    0.0272    0.0000  900.0000  900.0000 2500.0000    1.0000    0.0000    1.0000 -360.0000  360.0000 
  25.0000   26.0000    0.0032    0.0323    0.5310  600.0000  600.0000  600.0000    0.0000    0.0000    1.0000 -360.0000  360.0000 
  25.0000   37.0000    0.0006    0.0232    0.0000  900.0000  900.0000 2500.0000    1.0250    0.0000    1.0000 -360.0000  360.0000 
  26.0000   27.0000    0.0014    0.0147    0.2396  600.0000  600.0000  600.0000    0.0000    0.0000    1.0000 -360.0000  360.0000 
  26.0000   28.0000    0.0043    0.0474    0.7802  600.0000  600.0000  600.0000    0.0000    0.0000    1.0000 -360.0000  360.0000 
  26.0000   29.0000    0.0057    0.0625    1.0290  600.0000  600.0000  600.0000    0.0000    0.0000    1.0000 -360.0000  360.0000 
  28.0000   29.0000    0.0014    0.0151    0.2490  600.0000  600.0000  600.0000    0.0000    0.0000    1.0000 -360.0000  360.0000 
  29.0000   38.0000    0.0008    0.0156    0.0000 1200.0000 1200.0000 2500.0000    1.0250    0.0000    1.0000 -360.0000  360.0000 
];

%%-----  OPF Data  -----%%
%% generator cost data
%	1	startup	shutdown	n	x1	y1	...	xn	yn
%	2	startup	shutdown	n	c(n-1)	...	c0
mpc.gencost = [
	2	0	0	3	0.01	0.3	0.2;
	2	0	0	3	0.01	0.3	0.2;
	2	0	0	3	0.01	0.3	0.2;
	2	0	0	3	0.01	0.3	0.2;
	2	0	0	3	0.01	0.3	0.2;
	2	0	0	3	0.01	0.3	0.2;
	2	0	0	3	0.01	0.3	0.2;
	2	0	0	3	0.01	0.3	0.2;
	2	0	0	3	0.01	0.3	0.2;
	2	0	0	3	0.01	0.3	0.2;
];
